LTspice 24.0.12 for Windows
Circuit: * C:\Users\david\Desktop\projects\oradea\sacr\regulator.asc
Start Time: Tue May  7 21:04:19 2024
solver = Normal
Maximum thread count: 20
tnom = 27
temp = 27
method = modified trap
Direct Newton iteration failed to find .op point.  (Use ".option noopiter" to skip.)
Starting Gmin stepping
Gmin = 10
Gmin = 1.07374
Gmin = 0.115292
Gmin = 0.0123794
Gmin = 0.00132923
Gmin = 0.000142725
Gmin = 1.5325e-05
Gmin = 1.6455e-06
Gmin = 1.76685e-07
vernier = 0.5
vernier = 0.25
Gmin = 5.12851e-08
vernier = 0.333333
vernier = 0.444444
Gmin = 2.38053e-08
vernier = 0.592592
Gmin = 7.04527e-09
vernier = 0.790123
vernier = 1
Gmin = 1.06525e-09
Gmin = 1.1438e-10
Gmin = 1.22814e-11
Gmin = 1.31871e-12
Gmin = 1.41595e-13
Gmin = 0
Gmin stepping succeeded in finding the operating point.

Total elapsed time: 0.198 seconds.

